Infrared Spectrum: Sulfur Dioxide
Formula: S O2
CAS: 7446-09-5
State: gas
Melting point: -72.7 C
Boiling point: -10 C
Class: IUPAC A
Instrument: IFS66V (Bruker)
Instrument parameters: KBr Beam splitter; MCT Detector; Multipass cell
Sampling: 1 L/min Flow
Resolution: 0.1250
Temperature: 23 C
Pressure: 101.3 kPa
Origin: NIST, Anayltical Chemistry Division, 301-975-3108
cm-1	(micromol/mol)-1m-1 (base 10)
574.988	1.32058e-05
583.546	9.41596e-06
592.103	1.0058e-05
600.661	3.71962e-06
609.219	7.42362e-07
617.776	1.44718e-06
626.334	2.91981e-07
634.891	1.1039e-07
643.449	2.77494e-07
652.007	2.68718e-08
660.564	-6.71924e-07
669.122	9.66188e-08
677.68	-8.5874e-09
686.237	5.75702e-07
694.795	-1.03504e-07
703.352	-2.90364e-08
711.91	-3.85433e-07
720.468	-2.19633e-07
729.025	-7.41816e-08
737.583	-7.8991e-08
746.141	-3.4e-07
754.698	-3.6074e-08
763.256	-6.65332e-07
771.813	-5.18115e-07
780.371	-2.06311e-07
788.929	-1.34945e-07
797.486	-3.02569e-07
806.044	1.26765e-08
814.602	-3.59443e-07
823.159	-2.2382e-07
831.717	-5.6458e-07
840.274	-3.11191e-08
848.832	-4.72722e-07
857.39	8.26726e-09
865.947	-2.25399e-07
874.505	-4.1133e-07
883.063	-1.12839e-07
891.62	-3.12292e-07
900.178	-1.13626e-07
908.735	-2.62639e-07
917.293	-1.66549e-07
925.851	-1.61371e-07
934.408	-3.07355e-07
942.966	-2.77402e-07
951.524	-1.6074e-07
960.081	-2.25102e-07
968.639	-1.19472e-07
977.196	-1.6723e-07
985.754	6.07248e-08
994.312	-1.66067e-07
1002.87	-3.72396e-07
1011.43	-3.97296e-07
1019.98	-2.2776e-07
1028.54	-7.90692e-08
1037.1	-4.8221e-07
1045.66	-8.95175e-08
1054.22	1.4203e-07
1062.77	2.91086e-07
1071.33	1.72599e-06
1079.89	3.12961e-06
1088.45	6.88787e-06
1097	1.09171e-05
1105.56	1.57603e-05
1114.12	1.81704e-05
1122.68	4.23117e-05
1131.23	4.74794e-05
1139.79	8.09662e-05
1148.35	2.04466e-05
1156.91	4.09663e-05
1165.46	6.1455e-05
1174.02	4.57514e-05
1182.58	3.93563e-05
1191.14	2.29686e-05
1199.69	1.80601e-05
1208.25	7.38349e-06
1216.81	7.21626e-06
1225.37	3.22858e-06
1233.93	1.3907e-06
1242.48	4.89122e-07
1251.04	1.02621e-07
1259.6	-7.08074e-08
1268.16	-2.27996e-07
1276.71	-6.57216e-08
1285.27	-7.66955e-08
1293.83	3.03806e-08
1302.39	1.36024e-06
1310.94	7.46393e-06
1319.5	4.23088e-05
1328.06	0.000125451
1336.62	0.000434792
1345.17	0.000648246
1353.73	0.0005067
1362.29	0.000168362
1370.85	0.000654308
1379.4	0.000589878
1387.96	0.000162682
1396.52	1.3128e-05
1405.08	5.32475e-07
1413.64	2.97676e-07
1422.19	-5.67522e-09
1430.75	-1.8704e-07
1439.31	-9.62259e-08
1447.87	-1.76572e-07
1456.42	-1.67364e-07
1464.98	-1.3843e-07
1473.54	-2.92234e-07
1482.1	-1.19518e-07
1490.65	-2.56631e-07
1499.21	-1.72401e-07
1507.77	-2.25905e-07
1516.33	-1.4599e-07
1524.88	-7.94239e-08
1533.44	-1.80734e-07
1542	-5.53552e-08
1550.56	-2.07691e-07
1559.11	-7.31994e-08
1567.67	-2.65071e-07
1576.23	-3.21281e-07
1584.79	-9.02796e-08
1593.35	-2.92041e-07
1601.9	-1.97221e-07
1610.46	-1.65966e-07
1619.02	-1.72456e-07
1627.58	-1.93194e-07
1636.13	-9.92399e-08
1644.69	-1.3529e-07
1653.25	-1.62486e-07
1661.81	-1.00353e-07
1670.36	-9.48307e-08
1678.92	-2.25279e-07
1687.48	-6.49212e-08
1696.04	-9.51836e-08
1704.59	-1.78362e-07
1713.15	-2.29943e-07
1721.71	-2.29288e-07
1730.27	-9.53218e-08
1738.83	-2.51361e-07
1747.38	-9.75664e-08
1755.94	-2.26037e-07
1764.5	-1.55295e-07
1773.06	-1.70377e-07
1781.61	-2.04766e-07
1790.17	-1.33004e-07
1798.73	-2.36771e-07
1807.29	-1.69935e-07
1815.84	-3.29998e-07
1824.4	-6.37425e-08
1832.96	-1.89168e-07
1841.52	-1.03544e-07
1850.07	2.57548e-07
1858.63	-2.9744e-08
1867.19	1.43323e-07
1875.75	2.96181e-07
1884.3	4.98355e-07
1892.86	-7.18697e-08
1901.42	-2.0973e-07
1909.98	-1.28091e-07
1918.54	-1.70167e-07
1927.09	-1.51317e-07
1935.65	-1.95131e-07
1944.21	-2.62512e-07
1952.77	-2.3198e-07
1961.32	-2.02247e-07
1969.88	-2.50723e-07
1978.44	-2.58408e-07
1987	-1.81791e-07
1995.55	-1.13885e-07
2004.11	-2.19313e-07
2012.67	-3.45734e-08
2021.23	-2.16917e-07
2029.78	-2.19629e-07
2038.34	-1.13446e-07
2046.9	5.15826e-08
2055.46	1.43361e-07
2064.01	-5.35562e-08
2072.57	1.74104e-07
2081.13	-5.59955e-08
2089.69	-1.54548e-07
2098.25	-1.60714e-07
2106.8	-1.54784e-07
2115.36	1.21435e-08
2123.92	-1.21199e-08
2132.48	-1.64612e-07
2141.03	-2.10416e-07
2149.59	-1.95469e-07
2158.15	2.27869e-07
2166.71	-2.02049e-07
2175.26	-1.29964e-07
2183.82	-1.74022e-07
2192.38	-1.02456e-07
2200.94	-1.43536e-07
2209.49	1.51377e-07
2218.05	-2.36864e-07
2226.61	-7.80724e-08
2235.17	-1.88796e-07
2243.72	-5.27904e-08
2252.28	1.80261e-07
2260.84	5.41692e-08
2269.4	3.86735e-07
2277.96	1.83917e-07
2286.51	1.7848e-07
2295.07	1.08151e-07
2303.63	9.51952e-07
2312.19	8.28012e-07
2320.74	1.02301e-06
2329.3	6.85263e-07
2337.86	2.79007e-06
2346.42	3.81975e-07
2354.97	6.61743e-07
2363.53	6.40175e-07
2372.09	1.41808e-08
2380.65	1.36564e-07
2389.2	-2.88377e-07
2397.76	-2.07011e-07
2406.32	-8.85134e-08
2414.88	-2.56127e-07
2423.44	-2.42077e-07
2431.99	-1.33562e-07
2440.55	8.41933e-08
2449.11	4.68526e-07
2457.67	1.00764e-06
2466.22	3.18464e-06
2474.78	5.96991e-06
2483.34	1.38342e-05
2491.9	9.44081e-06
2500.45	2.71484e-06
2509.01	1.97408e-05
2517.57	1.03004e-05
2526.13	8.77647e-07
2534.68	-2.40553e-07
2543.24	-1.62582e-07
2551.8	-1.09523e-07
2560.36	-2.21177e-07
2568.91	-2.60602e-07
2577.47	-2.58606e-07
2586.03	-3.23815e-08
2594.59	-3.09865e-07
2603.15	-1.42543e-07
2611.7	-2.13856e-07
2620.26	-1.52709e-07
2628.82	-1.81771e-07
2637.38	-4.3741e-07
2645.93	-5.01582e-07
2654.49	-7.01029e-07
2663.05	-8.48838e-07
2671.61	-1.14211e-06
2680.16	-1.10717e-06
2688.72	-1.24331e-06
2697.28	-1.15439e-06
2705.84	-1.05454e-06
2714.39	-1.03639e-06
2722.95	-1.12328e-06
2731.51	-1.01889e-06
2740.07	-1.21831e-06
2748.62	-1.29411e-06
2757.18	-1.39225e-06
2765.74	-1.25533e-06
2774.3	-1.00909e-06
2782.86	-8.39183e-07
2791.41	-2.11667e-07
2799.97	-1.50812e-07
2808.53	-2.03962e-07
2817.09	-1.27252e-07
2825.64	-2.36504e-08
2834.2	-5.89713e-08
2842.76	-1.5796e-08
2851.32	-2.45322e-07
2859.87	-3.8353e-07
2868.43	-2.81087e-07
2876.99	-1.79513e-07
2885.55	-1.14052e-07
2894.1	-1.75872e-07
2902.66	-1.65671e-07
2911.22	-2.19385e-07
2919.78	-1.15603e-07
2928.34	-2.42559e-07
2936.89	-3.23598e-07
2945.45	6.63564e-09
2954.01	4.41066e-08
2962.57	-8.06827e-08
2971.12	-9.35101e-08
2979.68	-5.92751e-08
2988.24	-3.41757e-07
2996.8	-2.13325e-07
3005.35	-7.38597e-08
3013.91	-2.58222e-07
3022.47	-2.3628e-07
3031.03	3.47189e-08
3039.58	-1.40174e-07
3048.14	-1.23047e-07
3056.7	-1.40845e-07
3065.26	-3.44693e-07
3073.81	-1.71834e-07
3082.37	-2.02322e-07
3090.93	-1.76627e-07
3099.49	-1.17648e-07
3108.05	-1.34457e-07
3116.6	-2.2392e-07
3125.16	-1.37306e-07
3133.72	-3.22214e-08
3142.28	-7.75922e-08
3150.83	-3.81567e-07
3159.39	-2.36837e-07
3167.95	-9.71499e-08
3176.51	-9.24624e-08
3185.06	-2.65316e-07
3193.62	-2.17337e-07
3202.18	-9.82195e-08
3210.74	-2.9522e-09
3219.29	-2.39585e-07
3227.85	-2.78577e-07
3236.41	-2.66995e-07
3244.97	-3.01656e-07
3253.52	-2.02256e-07
3262.08	1.07533e-07
3270.64	-2.02278e-07
3279.2	-2.94005e-07
3287.76	-3.32315e-07
3296.31	-4.55618e-08
3304.87	-1.72603e-08
3313.43	-1.2782e-07
3321.99	-1.28247e-07
3330.54	-2.87215e-07
3339.1	-1.74078e-07
3347.66	-1.31443e-07
3356.22	1.32622e-08
3364.77	3.69071e-09
3373.33	-1.31621e-08
3381.89	-6.88666e-09
3390.45	7.9273e-08
3399	-2.29041e-07
3407.56	2.021e-07
3416.12	-4.21112e-08
3424.68	1.81098e-08
3433.23	-1.71097e-07
3441.79	6.64473e-08
3450.35	-2.81613e-07
3458.91	-1.61314e-07
3467.47	-2.96799e-07
3476.02	-2.61184e-07
3484.58	-1.05412e-07
3493.14	-2.32224e-07
3501.7	-2.88279e-07
3510.25	-1.53584e-07
3518.81	-1.45886e-07
3527.37	-5.79836e-08
3535.93	1.0778e-07
3544.48	-1.4687e-07
3553.04	-5.3478e-09
3561.6	-1.94445e-07
3570.16	-1.64263e-07
3578.71	-2.86577e-07
3587.27	-1.74826e-07
3595.83	-2.59005e-08
3604.39	8.89427e-08
3612.95	3.53064e-08
3621.5	-4.39138e-08
3630.06	-3.05307e-07
3638.62	1.47354e-07
3647.18	-3.18858e-07
3655.73	-8.6025e-08
3664.29	9.6013e-08
3672.85	1.10001e-07
3681.41	-1.7332e-07
3689.96	-2.14154e-07
3698.52	-1.44907e-07
3707.08	-1.21301e-07
3715.64	-2.11435e-07
3724.19	-2.3122e-07
3732.75	-9.44142e-08
3741.31	-7.452e-08
3749.87	-1.96719e-07
3758.42	-1.84452e-07
3766.98	-2.33475e-07
3775.54	-1.83104e-07
3784.1	-2.93021e-07
3792.66	-3.00306e-07
3801.21	-2.92256e-08
3809.77	-1.79493e-07
3818.33	-3.18e-07
3826.89	-1.48596e-07
3835.44	3.91026e-08
3844	-3.20759e-08
3852.56	-2.57924e-07
3861.12	1.11724e-07
3869.67	8.71128e-08
3878.23	-1.91078e-07
3886.79	2.27809e-08
3895.35	-3.76131e-07
3903.9	-2.79195e-08
3912.46	-4.17783e-08
3921.02	1.66095e-07
3929.58	-2.52474e-07
3938.13	-8.85752e-08
3946.69	-3.8315e-07
3955.25	-2.79286e-07
3963.81	-7.20207e-08
3972.37	-1.40394e-07
